NIM-LEAD-01-07
     RDKit          3D

 28 31  0  0  0  0  0  0  0  0999 V2000
   -1.2209   -2.5464   -4.2211 C   0  0  0  0  0  0  0  0  0  0  0  0
   -1.3597   -1.5672   -3.2002 O   0  0  0  0  0  0  0  0  0  0  0  0
   -0.2321   -1.2114   -2.5080 C   0  0  0  0  0  0  0  0  0  0  0  0
   -0.3779   -0.1783   -1.5782 C   0  0  0  0  0  0  0  0  0  0  0  0
   -1.6047    0.4229   -1.4514 O   0  0  0  0  0  0  0  0  0  0  0  0
   -2.0922    0.4067   -0.1041 C   0  0  0  0  0  0  0  0  0  0  0  0
   -3.6240    0.5317   -0.1268 C   0  0  0  0  0  0  0  0  0  0  0  0
   -4.1514    0.7649    1.2994 C   0  0  0  0  0  0  0  0  0  0  0  0
   -5.5916    0.2874    1.4457 C   0  0  0  0  0  0  0  0  0  0  0  0
   -5.7478   -1.1447    1.1903 N   0  0  0  0  0  0  0  0  0  0  0  0
   -4.7606   -1.7026    0.2635 C   0  0  0  0  0  0  0  0  0  0  0  0
   -4.2973   -0.6918   -0.7821 C   0  0  0  0  0  0  0  0  0  0  0  0
    0.7230    0.2657   -0.8460 C   0  0  0  0  0  0  0  0  0  0  0  0
    1.9883   -0.3497   -1.0033 C   0  0  0  0  0  0  0  0  0  0  0  0
    2.1243   -1.4132   -1.9054 C   0  0  0  0  0  0  0  0  0  0  0  0
    1.0193   -1.8193   -2.6466 C   0  0  0  0  0  0  0  0  0  0  0  0
    3.2780   -2.0598   -2.0866 N   0  0  0  0  0  0  0  0  0  0  0  0
    4.3196   -1.6502   -1.3554 C   0  0  0  0  0  0  0  0  0  0  0  0
    4.3180   -0.6475   -0.4741 N   0  0  0  0  0  0  0  0  0  0  0  0
    3.1584    0.0110   -0.3040 C   0  0  0  0  0  0  0  0  0  0  0  0
    3.1063    1.1086    0.5991 N   0  0  0  0  0  0  0  0  0  0  0  0
    4.0404    1.4715    1.5961 C   0  0  0  0  0  0  0  0  0  0  0  0
    4.8529    0.5375    2.2500 C   0  0  0  0  0  0  0  0  0  0  0  0
    5.7092    0.9341    3.2789 C   0  0  0  0  0  0  0  0  0  0  0  0
    5.7514    2.2617    3.6944 C   0  0  0  0  0  0  0  0  0  0  0  0
    4.9225    3.1974    3.0820 C   0  0  0  0  0  0  0  0  0  0  0  0
    4.0664    2.8007    2.0504 C   0  0  0  0  0  0  0  0  0  0  0  0
    6.7127   -0.2314    4.0539 Cl  0  0  0  0  0  0  0  0  0  0  0  0
  1  2  1  0
  2  3  1  0
  3  4  1  0
  4  5  1  0
  5  6  1  0
  6  7  1  0
  7  8  1  0
  8  9  1  0
  9 10  1  0
 10 11  1  0
 11 12  1  0
  4 13  2  0
 13 14  1  0
 14 15  1  0
 15 16  1  0
 15 17  2  0
 17 18  1  0
 18 19  2  0
 19 20  1  0
 20 21  1  0
 21 22  1  0
 22 23  1  0
 23 24  2  0
 24 25  1  0
 25 26  2  0
 26 27  1  0
 24 28  1  0
 16  3  2  0
 12  7  1  0
 20 14  2  0
 27 22  2  0
M  END
>  <Binding_Affinity_kcal_mol>  (1) 
-9.16

>  <QED>  (1) 
0.640

>  <MW>  (1) 
398.9

>  <LogP>  (1) 
4.41

>  <ADMET_Verdict>  (1) 
PASS

>  <Is_Pareto_Optimal>  (1) 
True

$$$$
NIM-LEAD-01-06
     RDKit          3D

 28 31  0  0  0  0  0  0  0  0999 V2000
   -1.7907   -3.5609    0.2645 C   0  0  0  0  0  0  0  0  0  0  0  0
   -0.5569   -2.7569   -0.0243 C   0  0  0  0  0  0  0  0  0  0  0  0
   -0.4636   -1.3994    0.2753 C   0  0  0  0  0  0  0  0  0  0  0  0
   -1.4808   -0.7219    0.8904 O   0  0  0  0  0  0  0  0  0  0  0  0
   -2.4568   -0.2791   -0.0638 C   0  0  0  0  0  0  0  0  0  0  0  0
   -3.2711    0.8630    0.5606 C   0  0  0  0  0  0  0  0  0  0  0  0
   -3.9301    0.4204    1.8799 C   0  0  0  0  0  0  0  0  0  0  0  0
   -5.1743    1.2498    2.1772 C   0  0  0  0  0  0  0  0  0  0  0  0
   -6.2084    1.0964    1.1518 N   0  0  0  0  0  0  0  0  0  0  0  0
   -5.6922    0.8378   -0.1913 C   0  0  0  0  0  0  0  0  0  0  0  0
   -4.3051    1.4256   -0.4289 C   0  0  0  0  0  0  0  0  0  0  0  0
    0.7197   -0.7038    0.0362 C   0  0  0  0  0  0  0  0  0  0  0  0
    1.8269   -1.3446   -0.5719 C   0  0  0  0  0  0  0  0  0  0  0  0
    1.7291   -2.6996   -0.9138 C   0  0  0  0  0  0  0  0  0  0  0  0
    0.5444   -3.3761   -0.6401 C   0  0  0  0  0  0  0  0  0  0  0  0
    2.7323   -3.3742   -1.4816 N   0  0  0  0  0  0  0  0  0  0  0  0
    3.8643   -2.6975   -1.6999 C   0  0  0  0  0  0  0  0  0  0  0  0
    4.0813   -1.4102   -1.4177 N   0  0  0  0  0  0  0  0  0  0  0  0
    3.0622   -0.7307   -0.8618 C   0  0  0  0  0  0  0  0  0  0  0  0
    3.2295    0.6502   -0.5664 N   0  0  0  0  0  0  0  0  0  0  0  0
    4.4266    1.3963   -0.4959 C   0  0  0  0  0  0  0  0  0  0  0  0
    5.6536    0.8252   -0.1307 C   0  0  0  0  0  0  0  0  0  0  0  0
    6.7983    1.6153    0.0025 C   0  0  0  0  0  0  0  0  0  0  0  0
    6.7232    2.9879   -0.2070 C   0  0  0  0  0  0  0  0  0  0  0  0
    7.8068    3.7679   -0.0694 F   0  0  0  0  0  0  0  0  0  0  0  0
    5.5141    3.5820   -0.5434 C   0  0  0  0  0  0  0  0  0  0  0  0
    4.3699    2.7897   -0.6741 C   0  0  0  0  0  0  0  0  0  0  0  0
    8.2921    0.8774    0.4422 Cl  0  0  0  0  0  0  0  0  0  0  0  0
  1  2  1  0
  2  3  1  0
  3  4  1  0
  4  5  1  0
  5  6  1  0
  6  7  1  0
  7  8  1  0
  8  9  1  0
  9 10  1  0
 10 11  1  0
  3 12  2  0
 12 13  1  0
 13 14  1  0
 14 15  1  0
 14 16  2  0
 16 17  1  0
 17 18  2  0
 18 19  1  0
 19 20  1  0
 20 21  1  0
 21 22  2  0
 22 23  1  0
 23 24  2  0
 24 25  1  0
 24 26  1  0
 26 27  2  0
 23 28  1  0
 15  2  2  0
 11  6  1  0
 19 13  2  0
 27 21  1  0
M  END
>  <Binding_Affinity_kcal_mol>  (2) 
-9.06

>  <QED>  (2) 
0.641

>  <MW>  (2) 
400.9

>  <LogP>  (2) 
4.85

>  <ADMET_Verdict>  (2) 
PASS

>  <Is_Pareto_Optimal>  (2) 
True

$$$$
NIM-LEAD-02-06
     RDKit          3D

 28 31  0  0  0  0  0  0  0  0999 V2000
   -1.7907   -3.5609    0.2645 C   0  0  0  0  0  0  0  0  0  0  0  0
   -0.5569   -2.7569   -0.0243 C   0  0  0  0  0  0  0  0  0  0  0  0
   -0.4636   -1.3994    0.2753 C   0  0  0  0  0  0  0  0  0  0  0  0
   -1.4808   -0.7219    0.8904 O   0  0  0  0  0  0  0  0  0  0  0  0
   -2.4568   -0.2791   -0.0638 C   0  0  0  0  0  0  0  0  0  0  0  0
   -3.2711    0.8630    0.5606 C   0  0  0  0  0  0  0  0  0  0  0  0
   -3.9301    0.4204    1.8799 C   0  0  0  0  0  0  0  0  0  0  0  0
   -5.1743    1.2498    2.1772 C   0  0  0  0  0  0  0  0  0  0  0  0
   -6.2084    1.0964    1.1518 N   0  0  0  0  0  0  0  0  0  0  0  0
   -5.6922    0.8378   -0.1913 C   0  0  0  0  0  0  0  0  0  0  0  0
   -4.3051    1.4256   -0.4289 C   0  0  0  0  0  0  0  0  0  0  0  0
    0.7197   -0.7038    0.0362 C   0  0  0  0  0  0  0  0  0  0  0  0
    1.8269   -1.3446   -0.5719 C   0  0  0  0  0  0  0  0  0  0  0  0
    1.7291   -2.6996   -0.9138 C   0  0  0  0  0  0  0  0  0  0  0  0
    0.5444   -3.3761   -0.6401 C   0  0  0  0  0  0  0  0  0  0  0  0
    2.7323   -3.3742   -1.4816 N   0  0  0  0  0  0  0  0  0  0  0  0
    3.8643   -2.6975   -1.6999 C   0  0  0  0  0  0  0  0  0  0  0  0
    4.0813   -1.4102   -1.4177 N   0  0  0  0  0  0  0  0  0  0  0  0
    3.0622   -0.7307   -0.8618 C   0  0  0  0  0  0  0  0  0  0  0  0
    3.2295    0.6502   -0.5664 N   0  0  0  0  0  0  0  0  0  0  0  0
    4.4266    1.3963   -0.4959 C   0  0  0  0  0  0  0  0  0  0  0  0
    5.6536    0.8252   -0.1307 C   0  0  0  0  0  0  0  0  0  0  0  0
    6.7983    1.6153    0.0025 C   0  0  0  0  0  0  0  0  0  0  0  0
    6.7232    2.9879   -0.2070 C   0  0  0  0  0  0  0  0  0  0  0  0
    7.8068    3.7679   -0.0694 F   0  0  0  0  0  0  0  0  0  0  0  0
    5.5141    3.5820   -0.5434 C   0  0  0  0  0  0  0  0  0  0  0  0
    4.3699    2.7897   -0.6741 C   0  0  0  0  0  0  0  0  0  0  0  0
    8.2921    0.8774    0.4422 Cl  0  0  0  0  0  0  0  0  0  0  0  0
  1  2  1  0
  2  3  1  0
  3  4  1  0
  4  5  1  0
  5  6  1  0
  6  7  1  0
  7  8  1  0
  8  9  1  0
  9 10  1  0
 10 11  1  0
  3 12  2  0
 12 13  1  0
 13 14  1  0
 14 15  1  0
 14 16  2  0
 16 17  1  0
 17 18  2  0
 18 19  1  0
 19 20  1  0
 20 21  1  0
 21 22  2  0
 22 23  1  0
 23 24  2  0
 24 25  1  0
 24 26  1  0
 26 27  2  0
 23 28  1  0
 15  2  2  0
 11  6  1  0
 19 13  2  0
 27 21  1  0
M  END
>  <Binding_Affinity_kcal_mol>  (3) 
-9.06

>  <QED>  (3) 
0.641

>  <MW>  (3) 
400.9

>  <LogP>  (3) 
4.85

>  <ADMET_Verdict>  (3) 
PASS

>  <Is_Pareto_Optimal>  (3) 
True

$$$$
NIM-LEAD-01-01
     RDKit          3D

 29 32  0  0  0  0  0  0  0  0999 V2000
   -1.1310   -3.0406   -4.7886 C   0  0  0  0  0  0  0  0  0  0  0  0
   -1.3940   -2.2253   -3.6570 O   0  0  0  0  0  0  0  0  0  0  0  0
   -0.3432   -1.9387   -2.8241 C   0  0  0  0  0  0  0  0  0  0  0  0
   -0.6521   -1.2158   -1.6674 C   0  0  0  0  0  0  0  0  0  0  0  0
   -1.9645   -0.9147   -1.4269 O   0  0  0  0  0  0  0  0  0  0  0  0
   -2.2263    0.4379   -1.0429 C   0  0  0  0  0  0  0  0  0  0  0  0
   -2.7882    0.4756    0.3856 C   0  0  0  0  0  0  0  0  0  0  0  0
   -2.8890    1.9289    0.8777 C   0  0  0  0  0  0  0  0  0  0  0  0
   -3.8932    2.0556    2.0188 C   0  0  0  0  0  0  0  0  0  0  0  0
   -5.2470    1.6478    1.6468 N   0  0  0  0  0  0  0  0  0  0  0  0
   -5.3116    0.7221    0.5136 C   0  0  0  0  0  0  0  0  0  0  0  0
   -4.1416   -0.2563    0.4966 C   0  0  0  0  0  0  0  0  0  0  0  0
    0.3561   -0.8975   -0.7573 C   0  0  0  0  0  0  0  0  0  0  0  0
    1.7006   -1.2653   -1.0083 C   0  0  0  0  0  0  0  0  0  0  0  0
    2.0126   -1.9623   -2.1834 C   0  0  0  0  0  0  0  0  0  0  0  0
    0.9887   -2.2926   -3.0651 C   0  0  0  0  0  0  0  0  0  0  0  0
    3.2601   -2.3241   -2.4964 N   0  0  0  0  0  0  0  0  0  0  0  0
    4.2216   -1.9829   -1.6325 C   0  0  0  0  0  0  0  0  0  0  0  0
    4.0497   -1.3264   -0.4815 N   0  0  0  0  0  0  0  0  0  0  0  0
    2.7903   -0.9752   -0.1623 C   0  0  0  0  0  0  0  0  0  0  0  0
    2.5444   -0.2933    1.0632 N   0  0  0  0  0  0  0  0  0  0  0  0
    3.4694    0.3473    1.9184 C   0  0  0  0  0  0  0  0  0  0  0  0
    4.6796    0.8891    1.4607 C   0  0  0  0  0  0  0  0  0  0  0  0
    5.5319    1.5754    2.3308 C   0  0  0  0  0  0  0  0  0  0  0  0
    5.1661    1.7569    3.6603 C   0  0  0  0  0  0  0  0  0  0  0  0
    5.9656    2.4195    4.5099 F   0  0  0  0  0  0  0  0  0  0  0  0
    3.9527    1.2677    4.1278 C   0  0  0  0  0  0  0  0  0  0  0  0
    3.1050    0.5759    3.2579 C   0  0  0  0  0  0  0  0  0  0  0  0
    7.0232    2.2052    1.7390 Cl  0  0  0  0  0  0  0  0  0  0  0  0
  1  2  1  0
  2  3  1  0
  3  4  1  0
  4  5  1  0
  5  6  1  0
  6  7  1  0
  7  8  1  0
  8  9  1  0
  9 10  1  0
 10 11  1  0
 11 12  1  0
  4 13  2  0
 13 14  1  0
 14 15  1  0
 15 16  1  0
 15 17  2  0
 17 18  1  0
 18 19  2  0
 19 20  1  0
 20 21  1  0
 21 22  1  0
 22 23  2  0
 23 24  1  0
 24 25  2  0
 25 26  1  0
 25 27  1  0
 27 28  2  0
 24 29  1  0
 16  3  2  0
 12  7  1  0
 20 14  2  0
 28 22  1  0
M  END
>  <Binding_Affinity_kcal_mol>  (4) 
-9.12

>  <QED>  (4) 
0.614

>  <MW>  (4) 
416.9

>  <LogP>  (4) 
4.55

>  <ADMET_Verdict>  (4) 
PASS

>  <Is_Pareto_Optimal>  (4) 
False

$$$$
NIM-LEAD-02-01
     RDKit          3D

 29 32  0  0  0  0  0  0  0  0999 V2000
   -1.1310   -3.0406   -4.7886 C   0  0  0  0  0  0  0  0  0  0  0  0
   -1.3940   -2.2253   -3.6570 O   0  0  0  0  0  0  0  0  0  0  0  0
   -0.3432   -1.9387   -2.8241 C   0  0  0  0  0  0  0  0  0  0  0  0
   -0.6521   -1.2158   -1.6674 C   0  0  0  0  0  0  0  0  0  0  0  0
   -1.9645   -0.9147   -1.4269 O   0  0  0  0  0  0  0  0  0  0  0  0
   -2.2263    0.4379   -1.0429 C   0  0  0  0  0  0  0  0  0  0  0  0
   -2.7882    0.4756    0.3856 C   0  0  0  0  0  0  0  0  0  0  0  0
   -2.8890    1.9289    0.8777 C   0  0  0  0  0  0  0  0  0  0  0  0
   -3.8932    2.0556    2.0188 C   0  0  0  0  0  0  0  0  0  0  0  0
   -5.2470    1.6478    1.6468 N   0  0  0  0  0  0  0  0  0  0  0  0
   -5.3116    0.7221    0.5136 C   0  0  0  0  0  0  0  0  0  0  0  0
   -4.1416   -0.2563    0.4966 C   0  0  0  0  0  0  0  0  0  0  0  0
    0.3561   -0.8975   -0.7573 C   0  0  0  0  0  0  0  0  0  0  0  0
    1.7006   -1.2653   -1.0083 C   0  0  0  0  0  0  0  0  0  0  0  0
    2.0126   -1.9623   -2.1834 C   0  0  0  0  0  0  0  0  0  0  0  0
    0.9887   -2.2926   -3.0651 C   0  0  0  0  0  0  0  0  0  0  0  0
    3.2601   -2.3241   -2.4964 N   0  0  0  0  0  0  0  0  0  0  0  0
    4.2216   -1.9829   -1.6325 C   0  0  0  0  0  0  0  0  0  0  0  0
    4.0497   -1.3264   -0.4815 N   0  0  0  0  0  0  0  0  0  0  0  0
    2.7903   -0.9752   -0.1623 C   0  0  0  0  0  0  0  0  0  0  0  0
    2.5444   -0.2933    1.0632 N   0  0  0  0  0  0  0  0  0  0  0  0
    3.4694    0.3473    1.9184 C   0  0  0  0  0  0  0  0  0  0  0  0
    4.6796    0.8891    1.4607 C   0  0  0  0  0  0  0  0  0  0  0  0
    5.5319    1.5754    2.3308 C   0  0  0  0  0  0  0  0  0  0  0  0
    5.1661    1.7569    3.6603 C   0  0  0  0  0  0  0  0  0  0  0  0
    5.9656    2.4195    4.5099 F   0  0  0  0  0  0  0  0  0  0  0  0
    3.9527    1.2677    4.1278 C   0  0  0  0  0  0  0  0  0  0  0  0
    3.1050    0.5759    3.2579 C   0  0  0  0  0  0  0  0  0  0  0  0
    7.0232    2.2052    1.7390 Cl  0  0  0  0  0  0  0  0  0  0  0  0
  1  2  1  0
  2  3  1  0
  3  4  1  0
  4  5  1  0
  5  6  1  0
  6  7  1  0
  7  8  1  0
  8  9  1  0
  9 10  1  0
 10 11  1  0
 11 12  1  0
  4 13  2  0
 13 14  1  0
 14 15  1  0
 15 16  1  0
 15 17  2  0
 17 18  1  0
 18 19  2  0
 19 20  1  0
 20 21  1  0
 21 22  1  0
 22 23  2  0
 23 24  1  0
 24 25  2  0
 25 26  1  0
 25 27  1  0
 27 28  2  0
 24 29  1  0
 16  3  2  0
 12  7  1  0
 20 14  2  0
 28 22  1  0
M  END
>  <Binding_Affinity_kcal_mol>  (5) 
-9.12

>  <QED>  (5) 
0.614

>  <MW>  (5) 
416.9

>  <LogP>  (5) 
4.55

>  <ADMET_Verdict>  (5) 
PASS

>  <Is_Pareto_Optimal>  (5) 
False

$$$$
