NIM-LEAD-02-06
     RDKit          3D

 28 31  0  0  0  0  0  0  0  0999 V2000
   -1.7907   -3.5609    0.2645 C   0  0  0  0  0  0  0  0  0  0  0  0
   -0.5569   -2.7569   -0.0243 C   0  0  0  0  0  0  0  0  0  0  0  0
   -0.4636   -1.3994    0.2753 C   0  0  0  0  0  0  0  0  0  0  0  0
   -1.4808   -0.7219    0.8904 O   0  0  0  0  0  0  0  0  0  0  0  0
   -2.4568   -0.2791   -0.0638 C   0  0  0  0  0  0  0  0  0  0  0  0
   -3.2711    0.8630    0.5606 C   0  0  0  0  0  0  0  0  0  0  0  0
   -3.9301    0.4204    1.8799 C   0  0  0  0  0  0  0  0  0  0  0  0
   -5.1743    1.2498    2.1772 C   0  0  0  0  0  0  0  0  0  0  0  0
   -6.2084    1.0964    1.1518 N   0  0  0  0  0  0  0  0  0  0  0  0
   -5.6922    0.8378   -0.1913 C   0  0  0  0  0  0  0  0  0  0  0  0
   -4.3051    1.4256   -0.4289 C   0  0  0  0  0  0  0  0  0  0  0  0
    0.7197   -0.7038    0.0362 C   0  0  0  0  0  0  0  0  0  0  0  0
    1.8269   -1.3446   -0.5719 C   0  0  0  0  0  0  0  0  0  0  0  0
    1.7291   -2.6996   -0.9138 C   0  0  0  0  0  0  0  0  0  0  0  0
    0.5444   -3.3761   -0.6401 C   0  0  0  0  0  0  0  0  0  0  0  0
    2.7323   -3.3742   -1.4816 N   0  0  0  0  0  0  0  0  0  0  0  0
    3.8643   -2.6975   -1.6999 C   0  0  0  0  0  0  0  0  0  0  0  0
    4.0813   -1.4102   -1.4177 N   0  0  0  0  0  0  0  0  0  0  0  0
    3.0622   -0.7307   -0.8618 C   0  0  0  0  0  0  0  0  0  0  0  0
    3.2295    0.6502   -0.5664 N   0  0  0  0  0  0  0  0  0  0  0  0
    4.4266    1.3963   -0.4959 C   0  0  0  0  0  0  0  0  0  0  0  0
    5.6536    0.8252   -0.1307 C   0  0  0  0  0  0  0  0  0  0  0  0
    6.7983    1.6153    0.0025 C   0  0  0  0  0  0  0  0  0  0  0  0
    6.7232    2.9879   -0.2070 C   0  0  0  0  0  0  0  0  0  0  0  0
    7.8068    3.7679   -0.0694 F   0  0  0  0  0  0  0  0  0  0  0  0
    5.5141    3.5820   -0.5434 C   0  0  0  0  0  0  0  0  0  0  0  0
    4.3699    2.7897   -0.6741 C   0  0  0  0  0  0  0  0  0  0  0  0
    8.2921    0.8774    0.4422 Cl  0  0  0  0  0  0  0  0  0  0  0  0
  1  2  1  0
  2  3  1  0
  3  4  1  0
  4  5  1  0
  5  6  1  0
  6  7  1  0
  7  8  1  0
  8  9  1  0
  9 10  1  0
 10 11  1  0
  3 12  2  0
 12 13  1  0
 13 14  1  0
 14 15  1  0
 14 16  2  0
 16 17  1  0
 17 18  2  0
 18 19  1  0
 19 20  1  0
 20 21  1  0
 21 22  2  0
 22 23  1  0
 23 24  2  0
 24 25  1  0
 24 26  1  0
 26 27  2  0
 23 28  1  0
 15  2  2  0
 11  6  1  0
 19 13  2  0
 27 21  1  0
M  END
>  <Binding_Affinity_kcal_mol>  (1) 
-9.06

>  <QED>  (1) 
0.641

>  <MW>  (1) 
400.9

>  <LogP>  (1) 
4.85

>  <ADMET_Verdict>  (1) 
PASS

>  <Is_Pareto_Optimal>  (1) 
True

$$$$
NIM-LEAD-01-01
     RDKit          3D

 29 32  0  0  0  0  0  0  0  0999 V2000
   -1.1310   -3.0406   -4.7886 C   0  0  0  0  0  0  0  0  0  0  0  0
   -1.3940   -2.2253   -3.6570 O   0  0  0  0  0  0  0  0  0  0  0  0
   -0.3432   -1.9387   -2.8241 C   0  0  0  0  0  0  0  0  0  0  0  0
   -0.6521   -1.2158   -1.6674 C   0  0  0  0  0  0  0  0  0  0  0  0
   -1.9645   -0.9147   -1.4269 O   0  0  0  0  0  0  0  0  0  0  0  0
   -2.2263    0.4379   -1.0429 C   0  0  0  0  0  0  0  0  0  0  0  0
   -2.7882    0.4756    0.3856 C   0  0  0  0  0  0  0  0  0  0  0  0
   -2.8890    1.9289    0.8777 C   0  0  0  0  0  0  0  0  0  0  0  0
   -3.8932    2.0556    2.0188 C   0  0  0  0  0  0  0  0  0  0  0  0
   -5.2470    1.6478    1.6468 N   0  0  0  0  0  0  0  0  0  0  0  0
   -5.3116    0.7221    0.5136 C   0  0  0  0  0  0  0  0  0  0  0  0
   -4.1416   -0.2563    0.4966 C   0  0  0  0  0  0  0  0  0  0  0  0
    0.3561   -0.8975   -0.7573 C   0  0  0  0  0  0  0  0  0  0  0  0
    1.7006   -1.2653   -1.0083 C   0  0  0  0  0  0  0  0  0  0  0  0
    2.0126   -1.9623   -2.1834 C   0  0  0  0  0  0  0  0  0  0  0  0
    0.9887   -2.2926   -3.0651 C   0  0  0  0  0  0  0  0  0  0  0  0
    3.2601   -2.3241   -2.4964 N   0  0  0  0  0  0  0  0  0  0  0  0
    4.2216   -1.9829   -1.6325 C   0  0  0  0  0  0  0  0  0  0  0  0
    4.0497   -1.3264   -0.4815 N   0  0  0  0  0  0  0  0  0  0  0  0
    2.7903   -0.9752   -0.1623 C   0  0  0  0  0  0  0  0  0  0  0  0
    2.5444   -0.2933    1.0632 N   0  0  0  0  0  0  0  0  0  0  0  0
    3.4694    0.3473    1.9184 C   0  0  0  0  0  0  0  0  0  0  0  0
    4.6796    0.8891    1.4607 C   0  0  0  0  0  0  0  0  0  0  0  0
    5.5319    1.5754    2.3308 C   0  0  0  0  0  0  0  0  0  0  0  0
    5.1661    1.7569    3.6603 C   0  0  0  0  0  0  0  0  0  0  0  0
    5.9656    2.4195    4.5099 F   0  0  0  0  0  0  0  0  0  0  0  0
    3.9527    1.2677    4.1278 C   0  0  0  0  0  0  0  0  0  0  0  0
    3.1050    0.5759    3.2579 C   0  0  0  0  0  0  0  0  0  0  0  0
    7.0232    2.2052    1.7390 Cl  0  0  0  0  0  0  0  0  0  0  0  0
  1  2  1  0
  2  3  1  0
  3  4  1  0
  4  5  1  0
  5  6  1  0
  6  7  1  0
  7  8  1  0
  8  9  1  0
  9 10  1  0
 10 11  1  0
 11 12  1  0
  4 13  2  0
 13 14  1  0
 14 15  1  0
 15 16  1  0
 15 17  2  0
 17 18  1  0
 18 19  2  0
 19 20  1  0
 20 21  1  0
 21 22  1  0
 22 23  2  0
 23 24  1  0
 24 25  2  0
 25 26  1  0
 25 27  1  0
 27 28  2  0
 24 29  1  0
 16  3  2  0
 12  7  1  0
 20 14  2  0
 28 22  1  0
M  END
>  <Binding_Affinity_kcal_mol>  (2) 
-9.12

>  <QED>  (2) 
0.614

>  <MW>  (2) 
416.9

>  <LogP>  (2) 
4.55

>  <ADMET_Verdict>  (2) 
PASS

>  <Is_Pareto_Optimal>  (2) 
True

$$$$
NIM-LEAD-02-01
     RDKit          3D

 29 32  0  0  0  0  0  0  0  0999 V2000
   -1.1310   -3.0406   -4.7886 C   0  0  0  0  0  0  0  0  0  0  0  0
   -1.3940   -2.2253   -3.6570 O   0  0  0  0  0  0  0  0  0  0  0  0
   -0.3432   -1.9387   -2.8241 C   0  0  0  0  0  0  0  0  0  0  0  0
   -0.6521   -1.2158   -1.6674 C   0  0  0  0  0  0  0  0  0  0  0  0
   -1.9645   -0.9147   -1.4269 O   0  0  0  0  0  0  0  0  0  0  0  0
   -2.2263    0.4379   -1.0429 C   0  0  0  0  0  0  0  0  0  0  0  0
   -2.7882    0.4756    0.3856 C   0  0  0  0  0  0  0  0  0  0  0  0
   -2.8890    1.9289    0.8777 C   0  0  0  0  0  0  0  0  0  0  0  0
   -3.8932    2.0556    2.0188 C   0  0  0  0  0  0  0  0  0  0  0  0
   -5.2470    1.6478    1.6468 N   0  0  0  0  0  0  0  0  0  0  0  0
   -5.3116    0.7221    0.5136 C   0  0  0  0  0  0  0  0  0  0  0  0
   -4.1416   -0.2563    0.4966 C   0  0  0  0  0  0  0  0  0  0  0  0
    0.3561   -0.8975   -0.7573 C   0  0  0  0  0  0  0  0  0  0  0  0
    1.7006   -1.2653   -1.0083 C   0  0  0  0  0  0  0  0  0  0  0  0
    2.0126   -1.9623   -2.1834 C   0  0  0  0  0  0  0  0  0  0  0  0
    0.9887   -2.2926   -3.0651 C   0  0  0  0  0  0  0  0  0  0  0  0
    3.2601   -2.3241   -2.4964 N   0  0  0  0  0  0  0  0  0  0  0  0
    4.2216   -1.9829   -1.6325 C   0  0  0  0  0  0  0  0  0  0  0  0
    4.0497   -1.3264   -0.4815 N   0  0  0  0  0  0  0  0  0  0  0  0
    2.7903   -0.9752   -0.1623 C   0  0  0  0  0  0  0  0  0  0  0  0
    2.5444   -0.2933    1.0632 N   0  0  0  0  0  0  0  0  0  0  0  0
    3.4694    0.3473    1.9184 C   0  0  0  0  0  0  0  0  0  0  0  0
    4.6796    0.8891    1.4607 C   0  0  0  0  0  0  0  0  0  0  0  0
    5.5319    1.5754    2.3308 C   0  0  0  0  0  0  0  0  0  0  0  0
    5.1661    1.7569    3.6603 C   0  0  0  0  0  0  0  0  0  0  0  0
    5.9656    2.4195    4.5099 F   0  0  0  0  0  0  0  0  0  0  0  0
    3.9527    1.2677    4.1278 C   0  0  0  0  0  0  0  0  0  0  0  0
    3.1050    0.5759    3.2579 C   0  0  0  0  0  0  0  0  0  0  0  0
    7.0232    2.2052    1.7390 Cl  0  0  0  0  0  0  0  0  0  0  0  0
  1  2  1  0
  2  3  1  0
  3  4  1  0
  4  5  1  0
  5  6  1  0
  6  7  1  0
  7  8  1  0
  8  9  1  0
  9 10  1  0
 10 11  1  0
 11 12  1  0
  4 13  2  0
 13 14  1  0
 14 15  1  0
 15 16  1  0
 15 17  2  0
 17 18  1  0
 18 19  2  0
 19 20  1  0
 20 21  1  0
 21 22  1  0
 22 23  2  0
 23 24  1  0
 24 25  2  0
 25 26  1  0
 25 27  1  0
 27 28  2  0
 24 29  1  0
 16  3  2  0
 12  7  1  0
 20 14  2  0
 28 22  1  0
M  END
>  <Binding_Affinity_kcal_mol>  (3) 
-9.12

>  <QED>  (3) 
0.614

>  <MW>  (3) 
416.9

>  <LogP>  (3) 
4.55

>  <ADMET_Verdict>  (3) 
PASS

>  <Is_Pareto_Optimal>  (3) 
True

$$$$
NIM-LEAD-02-05
     RDKit          3D

 30 33  0  0  0  0  0  0  0  0999 V2000
   -2.1373   -5.3417    1.7725 C   0  0  0  0  0  0  0  0  0  0  0  0
   -2.1913   -4.1329    1.0277 O   0  0  0  0  0  0  0  0  0  0  0  0
   -1.0330   -3.4058    0.9042 C   0  0  0  0  0  0  0  0  0  0  0  0
   -1.1332   -2.2023    0.1883 C   0  0  0  0  0  0  0  0  0  0  0  0
   -2.3777   -1.8909   -0.2905 O   0  0  0  0  0  0  0  0  0  0  0  0
   -2.5667   -0.7234   -1.0877 C   0  0  0  0  0  0  0  0  0  0  0  0
   -2.8266    0.5196   -0.2269 C   0  0  0  0  0  0  0  0  0  0  0  0
   -4.0463    0.3485    0.6866 C   0  0  0  0  0  0  0  0  0  0  0  0
   -4.2559    1.5913    1.5604 C   0  0  0  0  0  0  0  0  0  0  0  0
   -3.8619    2.8503    0.9223 N   0  0  0  0  0  0  0  0  0  0  0  0
   -3.9732    2.7936   -0.5270 C   0  0  0  0  0  0  0  0  0  0  0  0
   -2.9897    1.7734   -1.1076 C   0  0  0  0  0  0  0  0  0  0  0  0
    0.0079   -1.4158    0.0274 C   0  0  0  0  0  0  0  0  0  0  0  0
    1.2594   -1.8183    0.5631 C   0  0  0  0  0  0  0  0  0  0  0  0
    1.3442   -3.0148    1.2838 C   0  0  0  0  0  0  0  0  0  0  0  0
    0.2020   -3.7889    1.4393 C   0  0  0  0  0  0  0  0  0  0  0  0
    2.4815   -3.4478    1.8340 N   0  0  0  0  0  0  0  0  0  0  0  0
    3.5596   -2.6737    1.6762 C   0  0  0  0  0  0  0  0  0  0  0  0
    3.6088   -1.5184    1.0098 N   0  0  0  0  0  0  0  0  0  0  0  0
    2.4646   -1.0945    0.4441 C   0  0  0  0  0  0  0  0  0  0  0  0
    2.4697    0.1070   -0.3175 N   0  0  0  0  0  0  0  0  0  0  0  0
    3.4575    1.1171   -0.3552 C   0  0  0  0  0  0  0  0  0  0  0  0
    3.5450    1.9422   -1.4901 C   0  0  0  0  0  0  0  0  0  0  0  0
    4.4638    2.9977   -1.5473 C   0  0  0  0  0  0  0  0  0  0  0  0
    5.2858    3.2482   -0.4511 C   0  0  0  0  0  0  0  0  0  0  0  0
    6.1736    4.2538   -0.4769 F   0  0  0  0  0  0  0  0  0  0  0  0
    5.1917    2.4693    0.6955 C   0  0  0  0  0  0  0  0  0  0  0  0
    4.2721    1.4180    0.7453 C   0  0  0  0  0  0  0  0  0  0  0  0
    4.5432    3.8090   -2.7237 C   0  0  0  0  0  0  0  0  0  0  0  0
    4.6092    4.4892   -3.7112 C   0  0  0  0  0  0  0  0  0  0  0  0
  1  2  1  0
  2  3  1  0
  3  4  1  0
  4  5  1  0
  5  6  1  0
  6  7  1  0
  7  8  1  0
  8  9  1  0
  9 10  1  0
 10 11  1  0
 11 12  1  0
  4 13  2  0
 13 14  1  0
 14 15  1  0
 15 16  1  0
 15 17  2  0
 17 18  1  0
 18 19  2  0
 19 20  1  0
 20 21  1  0
 21 22  1  0
 22 23  2  0
 23 24  1  0
 24 25  2  0
 25 26  1  0
 25 27  1  0
 27 28  2  0
 24 29  1  0
 29 30  3  0
 16  3  2  0
 12  7  1  0
 20 14  2  0
 28 22  1  0
M  END
>  <Binding_Affinity_kcal_mol>  (4) 
-9.11

>  <QED>  (4) 
0.606

>  <MW>  (4) 
406.5

>  <LogP>  (4) 
3.88

>  <ADMET_Verdict>  (4) 
PASS

>  <Is_Pareto_Optimal>  (4) 
True

$$$$
NIM-LEAD-01-02
     RDKit          3D

 29 32  0  0  0  0  0  0  0  0999 V2000
   -1.8550   -5.0427   -0.6021 C   0  0  0  0  0  0  0  0  0  0  0  0
   -1.9214   -3.6209   -0.5234 O   0  0  0  0  0  0  0  0  0  0  0  0
   -0.7334   -2.9413   -0.4976 C   0  0  0  0  0  0  0  0  0  0  0  0
   -0.8149   -1.5556   -0.5701 C   0  0  0  0  0  0  0  0  0  0  0  0
   -2.0306   -0.9574   -0.7062 O   0  0  0  0  0  0  0  0  0  0  0  0
   -2.4368   -0.2469    0.4646 C   0  0  0  0  0  0  0  0  0  0  0  0
   -2.8913    1.1645    0.0535 C   0  0  0  0  0  0  0  0  0  0  0  0
   -3.2514    2.0214    1.2815 C   0  0  0  0  0  0  0  0  0  0  0  0
   -4.7559    2.0899    1.5315 C   0  0  0  0  0  0  0  0  0  0  0  0
   -5.3686    0.8544    1.1786 O   0  0  0  0  0  0  0  0  0  0  0  0
   -5.3521    0.6146   -0.2319 C   0  0  0  0  0  0  0  0  0  0  0  0
   -4.0798    1.1221   -0.9125 C   0  0  0  0  0  0  0  0  0  0  0  0
    0.3405   -0.7758   -0.5728 C   0  0  0  0  0  0  0  0  0  0  0  0
    1.6132   -1.3774   -0.4518 C   0  0  0  0  0  0  0  0  0  0  0  0
    1.7004   -2.7695   -0.3405 C   0  0  0  0  0  0  0  0  0  0  0  0
    0.5310   -3.5259   -0.3759 C   0  0  0  0  0  0  0  0  0  0  0  0
    2.8685   -3.4058   -0.1909 N   0  0  0  0  0  0  0  0  0  0  0  0
    3.9702   -2.6489   -0.1413 C   0  0  0  0  0  0  0  0  0  0  0  0
    4.0146   -1.3193   -0.2407 N   0  0  0  0  0  0  0  0  0  0  0  0
    2.8385   -0.6812   -0.4079 C   0  0  0  0  0  0  0  0  0  0  0  0
    2.8221    0.7350   -0.5341 N   0  0  0  0  0  0  0  0  0  0  0  0
    3.8431    1.6621   -0.2263 C   0  0  0  0  0  0  0  0  0  0  0  0
    4.8137    1.4228    0.7539 C   0  0  0  0  0  0  0  0  0  0  0  0
    5.7528    2.4036    1.0862 C   0  0  0  0  0  0  0  0  0  0  0  0
    5.7190    3.6426    0.4522 C   0  0  0  0  0  0  0  0  0  0  0  0
    6.6012    4.6039    0.7636 F   0  0  0  0  0  0  0  0  0  0  0  0
    4.7509    3.9138   -0.5007 C   0  0  0  0  0  0  0  0  0  0  0  0
    3.8099    2.9317   -0.8277 C   0  0  0  0  0  0  0  0  0  0  0  0
    6.9267    2.0750    2.2997 Cl  0  0  0  0  0  0  0  0  0  0  0  0
  1  2  1  0
  2  3  1  0
  3  4  1  0
  4  5  1  0
  5  6  1  0
  6  7  1  0
  7  8  1  0
  8  9  1  0
  9 10  1  0
 10 11  1  0
 11 12  1  0
  4 13  2  0
 13 14  1  0
 14 15  1  0
 15 16  1  0
 15 17  2  0
 17 18  1  0
 18 19  2  0
 19 20  1  0
 20 21  1  0
 21 22  1  0
 22 23  2  0
 23 24  1  0
 24 25  2  0
 25 26  1  0
 25 27  1  0
 27 28  2  0
 24 29  1  0
 16  3  2  0
 12  7  1  0
 20 14  2  0
 28 22  1  0
M  END
>  <Binding_Affinity_kcal_mol>  (5) 
-8.96

>  <QED>  (5) 
0.610

>  <MW>  (5) 
417.9

>  <LogP>  (5) 
4.98

>  <ADMET_Verdict>  (5) 
PASS

>  <Is_Pareto_Optimal>  (5) 
False

$$$$
