NIM-LEAD-01-01
     RDKit          3D

 35 37  0  0  0  0  0  0  0  0999 V2000
   -0.4610    3.9152   -2.3570 C   0  0  0  0  0  0  0  0  0  0  0  0
    0.2737    2.8370   -1.5981 C   0  0  0  0  0  0  0  0  0  0  0  0
   -0.4223    1.5430   -1.4253 C   0  0  1  0  0  0  0  0  0  0  0  0
   -0.1862    2.4976   -0.1971 C   0  0  1  0  0  0  0  0  0  0  0  0
   -0.3468    1.4608    0.8799 C   0  0  1  0  0  0  0  0  0  0  0  0
   -1.5123    0.7040    0.3892 N   0  0  0  0  0  0  0  0  0  0  0  0
   -1.7268    0.9493   -1.0361 C   0  0  0  0  0  0  0  0  0  0  0  0
   -2.2939    0.0239    1.2935 C   0  0  0  0  0  0  0  0  0  0  0  0
   -1.9836    0.0460    2.4928 O   0  0  0  0  0  0  0  0  0  0  0  0
   -3.4582   -0.9048    0.8284 C   0  0  2  0  0  0  0  0  0  0  0  0
   -3.0244   -2.4114    0.7121 C   0  0  0  0  0  0  0  0  0  0  0  0
   -4.2614   -3.2858    0.3975 C   0  0  0  0  0  0  0  0  0  0  0  0
   -2.4404   -2.9179    2.0510 C   0  0  0  0  0  0  0  0  0  0  0  0
   -1.9706   -2.6480   -0.3866 C   0  0  0  0  0  0  0  0  0  0  0  0
   -4.1619   -0.4448   -0.3721 N   0  0  0  0  0  0  0  0  0  0  0  0
   -5.1334    0.5512   -0.3274 C   0  0  0  0  0  0  0  0  0  0  0  0
   -5.3942    1.1567    0.7114 O   0  0  0  0  0  0  0  0  0  0  0  0
   -5.7966    0.8559   -1.6894 C   0  0  0  0  0  0  0  0  0  0  0  0
   -5.3272    2.0104   -2.2383 F   0  0  0  0  0  0  0  0  0  0  0  0
   -5.5266   -0.1264   -2.6014 F   0  0  0  0  0  0  0  0  0  0  0  0
   -7.1496    0.9615   -1.6244 F   0  0  0  0  0  0  0  0  0  0  0  0
    0.8950    0.5598    1.0840 C   0  0  0  0  0  0  0  0  0  0  0  0
    1.0701   -0.5039    0.4938 O   0  0  0  0  0  0  0  0  0  0  0  0
    1.8384    1.0804    1.9420 N   0  0  0  0  0  0  0  0  0  0  0  0
    3.0703    0.3556    2.2759 C   0  0  1  0  0  0  0  0  0  0  0  0
    4.1444    0.5976    1.1879 C   0  0  0  0  0  0  0  0  0  0  0  0
    4.3255   -0.5976    0.2524 C   0  0  1  0  0  0  0  0  0  0  0  0
    5.2295   -0.3004   -0.9520 C   0  0  0  0  0  0  0  0  0  0  0  0
    5.8103   -1.6620   -1.2959 C   0  0  0  0  0  0  0  0  0  0  0  0
    5.9050   -2.3048   -0.0205 N   0  0  0  0  0  0  0  0  0  0  0  0
    5.0723   -1.7354    0.9191 C   0  0  0  0  0  0  0  0  0  0  0  0
    4.9557   -2.0976    2.0770 O   0  0  0  0  0  0  0  0  0  0  0  0
    3.5700    0.8010    3.5970 C   0  0  0  0  0  0  0  0  0  0  0  0
    3.9330    1.1784    4.6355 N   0  0  0  0  0  0  0  0  0  0  0  0
    1.7601    2.8253   -1.8494 C   0  0  0  0  0  0  0  0  0  0  0  0
  1  2  1  0
  2  3  1  0
  3  4  1  0
  4  5  1  0
  5  6  1  0
  6  7  1  0
  6  8  1  0
  8  9  2  0
  8 10  1  0
 10 11  1  0
 11 12  1  0
 11 13  1  0
 11 14  1  0
 10 15  1  6
 15 16  1  0
 16 17  2  0
 16 18  1  0
 18 19  1  0
 18 20  1  0
 18 21  1  0
  5 22  1  6
 22 23  2  0
 22 24  1  0
 24 25  1  0
 25 26  1  6
 27 26  1  1
 27 28  1  0
 28 29  1  0
 29 30  1  0
 30 31  1  0
 31 32  2  0
 25 33  1  0
 33 34  3  0
  2 35  1  0
  4  2  1  6
  3  7  1  6
 31 27  1  0
M  END
>  <Binding_Affinity_kcal_mol>  (1) 
-11.16

>  <QED>  (1) 
0.504

>  <MW>  (1) 
499.5

>  <LogP>  (1) 
1.10

>  <ADMET_Verdict>  (1) 
PASS

>  <Is_Pareto_Optimal>  (1) 
True

$$$$
NIM-LEAD-01-02
     RDKit          3D

 34 36  0  0  0  0  0  0  0  0999 V2000
   -0.8166   -4.3697    3.0075 C   0  0  0  0  0  0  0  0  0  0  0  0
   -0.3724   -2.9288    3.0494 C   0  0  0  0  0  0  0  0  0  0  0  0
   -1.4089   -1.8952    2.7216 C   0  0  1  0  0  0  0  0  0  0  0  0
   -0.2098   -2.1986    1.7618 C   0  0  1  0  0  0  0  0  0  0  0  0
   -0.0521   -0.8307    1.1662 C   0  0  2  0  0  0  0  0  0  0  0  0
   -1.4634   -0.4856    0.9288 N   0  0  0  0  0  0  0  0  0  0  0  0
   -2.3488   -1.3849    1.6827 C   0  0  0  0  0  0  0  0  0  0  0  0
   -1.7816    0.7892    0.5172 C   0  0  0  0  0  0  0  0  0  0  0  0
   -0.9045    1.6512    0.3790 O   0  0  0  0  0  0  0  0  0  0  0  0
   -3.2605    1.1028    0.1648 C   0  0  2  0  0  0  0  0  0  0  0  0
   -3.6221    0.8109   -1.3260 C   0  0  0  0  0  0  0  0  0  0  0  0
   -5.0778    1.2586   -1.5992 C   0  0  0  0  0  0  0  0  0  0  0  0
   -3.5448   -0.7016   -1.6104 C   0  0  0  0  0  0  0  0  0  0  0  0
   -2.6942    1.5448   -2.3159 C   0  0  0  0  0  0  0  0  0  0  0  0
   -3.4586    2.5119    0.5127 N   0  0  0  0  0  0  0  0  0  0  0  0
   -3.7604    2.8789    1.8143 C   0  0  0  0  0  0  0  0  0  0  0  0
   -4.0611    2.0577    2.6805 O   0  0  0  0  0  0  0  0  0  0  0  0
   -3.7187    4.3863    2.0688 C   0  0  0  0  0  0  0  0  0  0  0  0
   -4.9663    4.9244    2.1743 F   0  0  0  0  0  0  0  0  0  0  0  0
   -3.0989    5.0581    1.0507 F   0  0  0  0  0  0  0  0  0  0  0  0
    0.7620   -0.8724   -0.1486 C   0  0  0  0  0  0  0  0  0  0  0  0
    0.2705   -1.1343   -1.2446 O   0  0  0  0  0  0  0  0  0  0  0  0
    2.1128   -0.6395    0.0239 N   0  0  0  0  0  0  0  0  0  0  0  0
    3.0661   -0.8077   -1.0784 C   0  0  1  0  0  0  0  0  0  0  0  0
    4.0239    0.4048   -1.0924 C   0  0  0  0  0  0  0  0  0  0  0  0
    4.4632    0.8295   -2.5011 C   0  0  1  0  0  0  0  0  0  0  0  0
    5.4814    1.9825   -2.4657 C   0  0  0  0  0  0  0  0  0  0  0  0
    6.8302    1.2839   -2.4342 C   0  0  0  0  0  0  0  0  0  0  0  0
    6.5855    0.0760   -3.1594 N   0  0  0  0  0  0  0  0  0  0  0  0
    5.2513   -0.2522   -3.2063 C   0  0  0  0  0  0  0  0  0  0  0  0
    4.7852   -1.2691   -3.6864 O   0  0  0  0  0  0  0  0  0  0  0  0
    3.8148   -2.0738   -0.8663 C   0  0  0  0  0  0  0  0  0  0  0  0
    4.4070   -3.0395   -0.6058 N   0  0  0  0  0  0  0  0  0  0  0  0
    0.6319   -2.6321    4.1342 C   0  0  0  0  0  0  0  0  0  0  0  0
  1  2  1  0
  2  3  1  0
  3  4  1  0
  4  5  1  0
  5  6  1  0
  6  7  1  0
  6  8  1  0
  8  9  2  0
  8 10  1  0
 10 11  1  0
 11 12  1  0
 11 13  1  0
 11 14  1  0
 10 15  1  6
 15 16  1  0
 16 17  2  0
 16 18  1  0
 18 19  1  0
 18 20  1  0
  5 21  1  6
 21 22  2  0
 21 23  1  0
 23 24  1  0
 24 25  1  1
 26 25  1  1
 26 27  1  0
 27 28  1  0
 28 29  1  0
 29 30  1  0
 30 31  2  0
 24 32  1  0
 32 33  3  0
  2 34  1  0
  4  2  1  1
  3  7  1  6
 30 26  1  0
M  END
>  <Binding_Affinity_kcal_mol>  (2) 
-11.14

>  <QED>  (2) 
0.495

>  <MW>  (2) 
481.5

>  <LogP>  (2) 
0.80

>  <ADMET_Verdict>  (2) 
PASS

>  <Is_Pareto_Optimal>  (2) 
True

$$$$
